21
C-OH-f.xyz
Rh      2.228571914220241      2.729432022468576     -6.303355370431617
Rh      4.457143828440482      1.364716011234288     -5.515435949127666
Rh      4.457143828440483      4.094148033702864     -5.515435949127666
Rh      2.228571914220240     -0.000000000000000     -6.303355370431616
Rh     -0.000000000000001     -0.000000000000001     -4.727516527823713
Rh      2.228571914220241      1.364716011234288     -3.939597106519761
Rh      2.228571914220241      4.094148033702865     -3.939597106519761
Rh     -0.000000000000000      2.729432022468576     -4.727516527823714
Rh     -0.000000000000001      1.364716011234288     -2.363758263911857
Rh     -0.000000000000000      4.094148033702865     -2.363758263911857
Rh      4.457143828440483      2.729432022468576     -3.151677685215808
Rh      4.457143828440482     -0.000000000000000     -3.151677685215808
Rh      2.267302876623408     -0.001631912198532     -1.542434031161540
Rh      4.463111229474117      1.361317258872556     -0.731524294649629
Rh      4.496247222266572      4.089899203985812     -0.833670037600447
Rh      2.265927322143341      2.727203745266331     -1.549181172667874
Rh      0.072399279899656      2.730625228086846     -0.030491471972710
Rh      0.065157696716392     -0.001824878471424     -0.032225756688038
O       3.187934128895482      1.437372984760849      0.988375267089619
H       3.232930473002084      0.553490664261631      1.394598506075568
C       1.600815842287092      1.362194279305768     -0.144602015221578
