41
CH3-H-s.xyz
Rh      0.682544705257784      1.064263178940715     18.540521254985357
Rh      3.472483729441048      1.094596964558805     18.548741692768765
Rh      6.194568634681042      1.060088916131647     18.525071952625243
Rh      2.062809348363967      5.566791733731782     17.791887689277239
Rh      4.801726630767917      5.554251898875145     17.789373410418126
Rh      7.527565097157457      5.551396496493129     17.791228332344428
Rh      0.695449561363470      3.368471195345725     17.106465903234227
Rh      3.423254945438611      3.367806076464886     17.105703355701522
Rh      6.156837514908327      3.363091937940394     17.102373663941968
Rh      2.058527066098897      1.150774938269361     16.273161481766326
Rh      4.764887996295809      1.149016698521529     16.303422011985973
Rh      7.520216173622639      1.153527447216716     16.269693642953346
Rh      0.693546265904421      5.579304828492986     15.473773828134000
Rh      3.421326859745940      5.576890836632190     15.479519517319963
Rh      6.149696058677343      5.583821761697554     15.476451271392486
Rh      2.051245560014145      3.359028654703124     14.720625449585899
Rh      4.779572219737471      3.356745133291184     14.724876331490639
Rh      7.514298181102093      3.359629807224764     14.715927712967961
Rh      0.682354986555725      1.150022759082244     13.939607445713804
Rh      3.411787161935798      1.150022759082244     13.939607445713804
Rh      6.141227525620576      1.150022759082244     13.939607445713804
Rh      2.047066980093404      5.607173522948955     13.151693787157990
Rh      4.776507343778189      5.607173522948955     13.151693787157990
Rh      7.505939519158260      5.607173522948955     13.151693787157990
Rh      0.682354986555725      3.378594798154197     12.363760552134810
Rh      3.411787161935798      3.378594798154197     12.363760552134810
Rh      6.141227525620576      3.378594798154197     12.363760552134810
Rh      2.047066980093404      1.150022759082244     11.575846893578994
Rh      4.776507343778189      1.150022759082244     11.575846893578994
Rh      7.505939519158260      1.150022759082244     11.575846893578994
Rh      0.682354986555726      5.607173522948955     10.787933235023182
Rh      3.411787161935798      5.607173522948955     10.787933235023182
Rh      6.141227525620576      5.607173522948955     10.787933235023182
Rh      2.047066980093404      3.378594798154197     10.000000000000000
Rh      4.776507343778189      3.378594798154197     10.000000000000000
Rh      7.505939519158260      3.378594798154197     10.000000000000000
H       2.404586861132553      1.442721214789108     19.822472090187752
H       2.975267589132378      2.402629163864737     21.168993970720180
H       4.478391375630894      1.595606741317190     20.715375600930066
H       3.128720263007995      0.608002577978597     21.333419955339281
C       3.379985983292145      1.486689333385245     20.745524555994912
