42
CH3CO-s.xyz
Rh      0.715688794582267      1.100815551121949     18.636990994296344
Rh      3.440993491299568      1.112670247043521     18.590073379299024
Rh      6.173472231992931      1.105965248211245     18.548155059924905
Rh      2.056796380086506      5.581703795937933     17.810650267952195
Rh      4.793432458156921      5.589529448713289     17.810837974192630
Rh      7.515546013843400      5.585158828133743     17.815108745005119
Rh      0.687076990520693      3.371991160985190     17.137476566472316
Rh      3.420122195877244      3.373791245744289     17.123420051646441
Rh      6.149310329757844      3.376063658386417     17.135638353955965
Rh      2.047639347117908      1.147059171213945     16.263747211525647
Rh      4.763281337390482      1.144047943313861     16.304941950041517
Rh      7.508415564650251      1.147348143058981     16.263891062562251
Rh      0.683733666815447      5.583087877449938     15.474922109229656
Rh      3.417354677966189      5.575417277940886     15.478617013132791
Rh      6.144231622564594      5.581453896260211     15.476820969044198
Rh      2.048300153824841      3.361495270977879     14.720830851632281
Rh      4.782962246591972      3.353814024400295     14.719740610637599
Rh      7.505832320533442      3.359723281849227     14.721591187896641
Rh      0.682354986555726      1.150022759082244     13.939607445713804
Rh      3.411787161935798      1.150022759082244     13.939607445713804
Rh      6.141227525620576      1.150022759082244     13.939607445713804
Rh      2.047066980093404      5.607173522948955     13.151693787157990
Rh      4.776507343778189      5.607173522948955     13.151693787157990
Rh      7.505939519158260      5.607173522948955     13.151693787157990
Rh      0.682354986555726      3.378594798154197     12.363760552134810
Rh      3.411787161935798      3.378594798154197     12.363760552134810
Rh      6.141227525620576      3.378594798154197     12.363760552134810
Rh      2.047066980093404      1.150022759082244     11.575846893578994
Rh      4.776507343778189      1.150022759082244     11.575846893578994
Rh      7.505939519158260      1.150022759082244     11.575846893578994
Rh      0.682354986555726      5.607173522948955     10.787933235023182
Rh      3.411787161935798      5.607173522948955     10.787933235023182
Rh      6.141227525620576      5.607173522948955     10.787933235023182
Rh      2.047066980093404      3.378594798154197     10.000000000000000
Rh      4.776507343778189      3.378594798154197     10.000000000000000
Rh      7.505939519158260      3.378594798154197     10.000000000000000
H       1.066330935268663      1.259232189453616     22.557969942577433
H      -0.399443092660445      1.001385352137541     21.560517247946041
H       0.311819849470494      2.607868324074206     21.681187284517609
O       2.662554816009082      1.275182777835504     20.609644165041278
C       1.423462188928851      1.298877667012501     20.447622336745944
C       0.540724412981687      1.540065082929006     21.644024208557664
