44
CH3CHO-H-s.xyz
Rh      0.623600672534375      1.063783633931576     18.546106993171058
Rh      3.386688124047597      0.957093981348749     18.558928171466128
Rh      6.101946553669205      1.006970595770648     18.473804961593647
Rh      2.043844360765523      5.504477389809376     17.788070671955303
Rh      4.783432537241001      5.520309121752351     17.758222906783121
Rh      7.479610000711378      5.519194717349214     17.747123558424239
Rh      0.680044673369726      3.348907431991780     17.094948399678700
Rh      3.418604727835032      3.325574861890358     17.096298137202002
Rh      6.131909971731551      3.324866281918725     17.081658061007708
Rh      2.045551995527350      1.142130641719392     16.270514931439077
Rh      4.784335431297799      1.139068233182258     16.275673554370464
Rh      7.517396360761755      1.142149016591120     16.270398972909511
Rh      0.684094935510413      5.567583323361880     15.476675398737097
Rh      3.414033950585504      5.573345538459419     15.472342094166633
Rh      6.145743971095448      5.572020967461362     15.475004306237503
Rh      2.048006464846290      3.356097526778554     14.727557823356536
Rh      4.776552753750627      3.356096296242784     14.719317259569351
Rh      7.509154961256297      3.355533374843551     14.728366998409255
Rh      0.682354986555725      1.150022759082244     13.939607445713804
Rh      3.411787161935798      1.150022759082244     13.939607445713804
Rh      6.141227525620576      1.150022759082244     13.939607445713804
Rh      2.047066980093404      5.607173522948955     13.151693787157990
Rh      4.776507343778189      5.607173522948955     13.151693787157990
Rh      7.505939519158260      5.607173522948955     13.151693787157990
Rh      0.682354986555725      3.378594798154197     12.363760552134810
Rh      3.411787161935798      3.378594798154197     12.363760552134810
Rh      6.141227525620576      3.378594798154197     12.363760552134810
Rh      2.047066980093404      1.150022759082244     11.575846893578994
Rh      4.776507343778189      1.150022759082244     11.575846893578994
Rh      7.505939519158260      1.150022759082244     11.575846893578994
Rh      0.682354986555726      5.607173522948955     10.787933235023182
Rh      3.411787161935798      5.607173522948955     10.787933235023182
Rh      6.141227525620576      5.607173522948955     10.787933235023182
Rh      2.047066980093404      3.378594798154197     10.000000000000000
Rh      4.776507343778189      3.378594798154197     10.000000000000000
Rh      7.505939519158260      3.378594798154197     10.000000000000000
H      -0.022879769663817      2.557864865744794     22.333204175479302
H      -1.200778159067093      1.850075850732177     21.235200419498696
H       1.797376800659321      2.339764499694764     20.566156568548422
H       2.035802015798352      0.092831842982519     19.757509605725179
H      -0.438068828010667      3.407087845678249     20.855508076877793
O       1.041470237793630      0.421325207544306     20.584585558956498
C       0.871239200176900      1.765909954561065     20.546036898027467
C      -0.267772806745719      2.412395868908829     21.274967010611405
