40
CHCO-s.xyz
Rh      0.681334682508328      1.103325681593093     18.555864914932872
Rh      3.416807010099795      1.116426067547558     18.603561599574920
Rh      6.134623397969118      1.114845937750863     18.606222409077638
Rh      2.042011432345251      5.589657990163200     17.813587766980316
Rh      4.776978551933579      5.570628541973118     17.806127818191186
Rh      7.509737477480053      5.590002243760577     17.813861721339816
Rh      0.681210774467608      3.374829951646520     17.134636830873909
Rh      3.408231223285105      3.381044561317496     17.124300727340117
Rh      6.144872987054209      3.380024840861117     17.124649528111906
Rh      2.048449906910554      1.146454858951716     16.288414618217718
Rh      4.777080990335035      1.146813430103342     16.274662526841663
Rh      7.503646159673268      1.146266247962957     16.288608167002149
Rh      0.681678466798598      5.577556547389239     15.479031082223273
Rh      3.408052413444103      5.578806849530359     15.477770415523812
Rh      6.145182971144914      5.578832656250622     15.477869473431529
Rh      2.042795265769594      3.356120389483256     14.721103104338384
Rh      4.777229374431158      3.360193461940215     14.717084840786727
Rh      7.509258738104659      3.355953365862325     14.720946748213557
Rh      0.682354986555726      1.150022759082244     13.939607445713804
Rh      3.411787161935798      1.150022759082244     13.939607445713804
Rh      6.141227525620576      1.150022759082244     13.939607445713804
Rh      2.047066980093404      5.607173522948955     13.151693787157990
Rh      4.776507343778189      5.607173522948955     13.151693787157990
Rh      7.505939519158260      5.607173522948955     13.151693787157990
Rh      0.682354986555726      3.378594798154197     12.363760552134810
Rh      3.411787161935798      3.378594798154197     12.363760552134810
Rh      6.141227525620576      3.378594798154197     12.363760552134810
Rh      2.047066980093404      1.150022759082244     11.575846893578994
Rh      4.776507343778189      1.150022759082244     11.575846893578994
Rh      7.505939519158260      1.150022759082244     11.575846893578994
Rh      0.682354986555726      5.607173522948955     10.787933235023182
Rh      3.411787161935798      5.607173522948955     10.787933235023182
Rh      6.141227525620576      5.607173522948955     10.787933235023182
Rh      2.047066980093404      3.378594798154197     10.000000000000000
Rh      4.776507343778189      3.378594798154197     10.000000000000000
Rh      7.505939519158260      3.378594798154197     10.000000000000000
H       4.782161630079172      2.506118501508763     20.628900786742236
O       4.691384496539064     -0.520497361898710     21.630531067431338
C       4.728858053177095      0.439653591624117     20.971647979508358
C       4.777221034933420      1.515291074027297     20.185820910882232
