43
H-CH3CO-s.xyz
Rh      0.683718637649907      1.068208904444408     18.623936688391495
Rh      3.437764946085782      1.053841054077637     18.559138449232918
Rh      6.139294932861731      1.033323369908198     18.511393682357181
Rh      2.047454396470951      5.556583243238998     17.753157301158712
Rh      4.781232796489739      5.549872935448735     17.750687747897281
Rh      7.525475419282709      5.581222116876469     17.767463742323919
Rh      0.676872522804755      3.366365398256414     17.057922594970513
Rh      3.422501070049923      3.352962201165576     17.074870335554149
Rh      6.137166441117147      3.357893158722932     17.073619809884391
Rh      2.044726979694846      1.153868761139401     16.266408069658720
Rh      4.750834604770444      1.145056140198484     16.302626346165422
Rh      7.523492716619959      1.143302299862017     16.313328067174382
Rh      0.676676763818748      5.580494306204314     15.473516755914799
Rh      3.409144962900547      5.575365311437235     15.475969390020296
Rh      6.136781112713199      5.583876234419035     15.470348390799908
Rh      2.045218536633137      3.361305677059793     14.713953159653061
Rh      4.779659674038816      3.354022024424481     14.714978190859803
Rh      7.497200088772292      3.354836272296755     14.719416429921150
Rh      0.682354986555725      1.150022759082244     13.939607445713804
Rh      3.411787161935798      1.150022759082244     13.939607445713804
Rh      6.141227525620576      1.150022759082244     13.939607445713804
Rh      2.047066980093404      5.607173522948955     13.151693787157990
Rh      4.776507343778189      5.607173522948955     13.151693787157990
Rh      7.505939519158260      5.607173522948955     13.151693787157990
Rh      0.682354986555725      3.378594798154197     12.363760552134810
Rh      3.411787161935798      3.378594798154197     12.363760552134810
Rh      6.141227525620576      3.378594798154197     12.363760552134810
Rh      2.047066980093404      1.150022759082244     11.575846893578994
Rh      4.776507343778189      1.150022759082244     11.575846893578994
Rh      7.505939519158260      1.150022759082244     11.575846893578994
Rh      0.682354986555726      5.607173522948955     10.787933235023182
Rh      3.411787161935798      5.607173522948955     10.787933235023182
Rh      6.141227525620576      5.607173522948955     10.787933235023182
Rh      2.047066980093404      3.378594798154197     10.000000000000000
Rh      4.776507343778189      3.378594798154197     10.000000000000000
Rh      7.505939519158260      3.378594798154197     10.000000000000000
H       1.137974069445352      2.167792662730104     22.481088865939242
H       0.703835900446380      0.480561215440116     22.177884064411082
H       1.165260185617075      2.454518528669862     19.799472470591731
H      -0.335130811113667      1.789857155882497     21.570043357976942
O       2.759107290719996      1.316734508999238     20.521395132900459
C       1.484806151172180      1.542862877090660     20.481441877419158
C       0.694179051284396      1.483730133103165     21.749905259118435
