21
H-OH-s.xyz
Rh      2.232067715973315      2.733713487737054     -6.313240872129200
Rh      4.464135431946629      1.366856743868527     -5.524085763113050
Rh      4.464135431946630      4.100570231605582     -5.524085763113050
Rh      2.232067715973314     -0.000000000000000     -6.313240872129199
Rh     -0.000000000000001     -0.000000000000001     -4.734930654096900
Rh      2.232067715973315      1.366856743868527     -3.945775545080750
Rh      2.232067715973315      4.100570231605583     -3.945775545080751
Rh     -0.000000000000000      2.733713487737055     -4.734930654096901
Rh     -0.000000000000001      1.366856743868527     -2.367465327048450
Rh     -0.000000000000000      4.100570231605583     -2.367465327048450
Rh      4.464135431946630      2.733713487737055     -3.156620436064600
Rh      4.464135431946629     -0.000000000000000     -3.156620436064600
Rh      2.235313485311108     -0.001639159472349     -1.567418981889715
Rh      4.399965729036741      1.366810685848447     -0.799187481800012
Rh      4.438175059905511      4.100552134082398     -0.859732471199273
Rh      2.235353652831378      2.735278591999304     -1.567444193698392
Rh     -0.017835364083049      2.761143671386154     -0.115963871587428
Rh     -0.017873743533249     -0.027432780423260     -0.116068885035456
O      -0.523198282557886      1.366356868237681      1.564782656136299
H      -0.501040395142733      1.365064826778859      2.535004648258074
H      -1.699774522735341      1.366504751493078      0.848057442868297
