19
H-h.xyz
Rh      2.232067715973315      2.733713487737054     -6.313240872129200
Rh      4.464135431946629      1.366856743868527     -5.524085763113050
Rh      4.464135431946630      4.100570231605582     -5.524085763113050
Rh      2.232067715973314     -0.000000000000000     -6.313240872129199
Rh     -0.000000000000001     -0.000000000000001     -4.734930654096900
Rh      2.232067715973315      1.366856743868527     -3.945775545080750
Rh      2.232067715973315      4.100570231605583     -3.945775545080751
Rh     -0.000000000000000      2.733713487737055     -4.734930654096901
Rh     -0.000000000000001      1.366856743868527     -2.367465327048450
Rh     -0.000000000000000      4.100570231605583     -2.367465327048450
Rh      4.464135431946630      2.733713487737055     -3.156620436064600
Rh      4.464135431946629     -0.000000000000000     -3.156620436064600
Rh      2.225310871899953     -0.004574611234574     -1.568968535043611
Rh      4.425502781437280      1.366856930803283     -0.848040395929749
Rh      4.435945965036069      4.100570112805820     -0.851103835970604
Rh      2.225311131564020      2.738288091639800     -1.568968490750223
Rh     -0.063272273673961      2.726876890720888     -0.085012723421507
Rh     -0.063272182423565      0.006836588852476     -0.085012783694791
H       0.370653939075261      1.366856752405041      0.978078708034524
