20
O-H-s.xyz
Rh      2.232067715973315      2.733713487737054     -6.313240872129200
Rh      4.464135431946629      1.366856743868527     -5.524085763113050
Rh      4.464135431946630      4.100570231605582     -5.524085763113050
Rh      2.232067715973314     -0.000000000000000     -6.313240872129199
Rh     -0.000000000000001     -0.000000000000001     -4.734930654096900
Rh      2.232067715973315      1.366856743868527     -3.945775545080750
Rh      2.232067715973315      4.100570231605583     -3.945775545080751
Rh     -0.000000000000000      2.733713487737055     -4.734930654096901
Rh     -0.000000000000001      1.366856743868527     -2.367465327048450
Rh     -0.000000000000000      4.100570231605583     -2.367465327048450
Rh      4.464135431946630      2.733713487737055     -3.156620436064600
Rh      4.464135431946629     -0.000000000000000     -3.156620436064600
Rh      2.225994359025922     -0.031265793576262     -1.559678669380898
Rh      4.403955039006506      1.318370850539384     -0.813812278329556
Rh      4.407948919667112      4.033086890116912     -0.794018643526799
Rh      2.202914211299934      2.717966208656854     -1.564724379826756
Rh      0.016757291006246      2.768245159067540     -0.090761439621278
Rh     -0.053103499451656      0.013688384249335     -0.074984128722567
O      -1.349015944900234      1.706210911631155      1.023244668744449
H      -1.970466842414661      2.904684361802400      0.614697672836032
