39
CH-H-s.xyz
Rh      0.000000000000000      0.000000000000000     10.000000000000000
Rh      2.729432175380073      0.000000000000000     10.000000000000000
Rh      5.458864350760146      0.000000000000000     10.000000000000000
Rh      1.364716087690037      2.363757601785767     10.000000000000000
Rh      4.094148263070110      2.363757601785767     10.000000000000000
Rh      6.823580438450183      2.363757601785767     10.000000000000000
Rh      2.729432175380073      4.727515203571533     10.000000000000000
Rh      5.458864350760146      4.727515203571533     10.000000000000000
Rh      8.188296526140221      4.727515203571533     10.000000000000000
Rh      1.364716087690037      0.787919200595256     12.228572039071956
Rh      4.094148263070109      0.787919200595256     12.228572039071956
Rh      6.823580438450183      0.787919200595256     12.228572039071956
Rh      2.729432175380073      3.151676802381022     12.228572039071956
Rh      5.458864350760146      3.151676802381022     12.228572039071956
Rh      8.188296526140221      3.151676802381022     12.228572039071956
Rh      4.094148263070110      5.515434404166789     12.228572039071956
Rh      6.823580438450183      5.515434404166789     12.228572039071956
Rh      9.553012613830257      5.515434404166789     12.228572039071956
Rh      0.002683146027948      1.569032215784068     14.435024686627971
Rh      2.726472394181728      1.568926012438071     14.435014801854576
Rh      5.459006405808395      1.575242534770422     14.427479366345739
Rh      1.364446879742635      3.928404613937613     14.464236453938771
Rh      4.086987300326951      3.945231771224059     14.427641720699608
Rh      6.830775545041837      3.945092440628806     14.427853533837373
Rh      2.719756500219949      6.296296013399729     14.420339241242747
Rh      5.458900561267831      6.311204018556806     14.431925350561693
Rh      8.197832319331814      6.296075139527901     14.420626647217931
Rh     -0.005353590183659      0.024903376208551     16.740179622688633
Rh      2.733843657422718      0.024652642273314     16.740359874642330
Rh      5.458607487635592      0.020271165296866     16.630567956091685
Rh      1.364086245562616      2.409187809794563     16.789792659518561
Rh      4.128513201517226      2.397645301844529     16.635032754416013
Rh      6.788920657653477      2.397685096631381     16.635448831477117
Rh      2.743790286978251      4.765963057598853     16.640350525566944
Rh      5.458736410985647      4.708424907656543     16.636436968343681
Rh      8.173069520934963      4.765798933186822     16.640649778864049
C       1.364124337080316      0.754079640514580     18.003393658445574
H       1.364310732103142      2.265371262712485     18.395461253002424
H       1.363889858719711      0.502228178949720     19.065111938167423
