40
CH-OH-s.xyz
Rh      0.000000000000000      0.000000000000000     10.000000000000000
Rh      2.729432175380073      0.000000000000000     10.000000000000000
Rh      5.458864350760146      0.000000000000000     10.000000000000000
Rh      1.364716087690037      2.363757601785767     10.000000000000000
Rh      4.094148263070110      2.363757601785767     10.000000000000000
Rh      6.823580438450183      2.363757601785767     10.000000000000000
Rh      2.729432175380073      4.727515203571533     10.000000000000000
Rh      5.458864350760146      4.727515203571533     10.000000000000000
Rh      8.188296526140221      4.727515203571533     10.000000000000000
Rh      1.364716087690037      0.787919200595256     12.228572039071956
Rh      4.094148263070109      0.787919200595256     12.228572039071956
Rh      6.823580438450183      0.787919200595256     12.228572039071956
Rh      2.729432175380073      3.151676802381022     12.228572039071956
Rh      5.458864350760146      3.151676802381022     12.228572039071956
Rh      8.188296526140221      3.151676802381022     12.228572039071956
Rh      4.094148263070110      5.515434404166789     12.228572039071956
Rh      6.823580438450183      5.515434404166789     12.228572039071956
Rh      9.553012613830257      5.515434404166789     12.228572039071956
Rh      0.000039834360375      1.572835366780983     14.428425284053917
Rh      2.723448137349826      1.572114191131454     14.429880309851807
Rh      5.441453791593480      1.575826944046507     14.448648915806922
Rh      1.362101719155326      3.938944411865800     14.425476500988843
Rh      4.087462644165773      3.920450936283520     14.453009124242071
Rh      6.822733404451994      3.938937604520010     14.423629816874950
Rh      2.727618247155007      6.299468846657592     14.426528576928293
Rh      5.457478426750698      6.304078409028209     14.430454629541984
Rh      8.185550195747213      6.301781546570542     14.425430725785786
Rh     -0.027977088287527     -0.015517808417955     16.648612885345841
Rh      2.711023571157922     -0.018837465799992     16.759613984434402
Rh      5.464558256212889     -0.017076993992880     16.619937577358613
Rh      1.337835731741281      2.356364588117809     16.751986699375742
Rh      4.120477273602647      2.379029292119838     16.727161885610919
Rh      6.814356309005526      2.365702968078818     16.634354128961554
Rh      2.716716144229834      4.740271894020119     16.623621936030034
Rh      5.458239897260514      4.718199927822186     16.634774941926494
Rh      8.179191956951087      4.723325714923404     16.641711658148441
H       1.712362712970845      1.019291915338051     19.160156430760715
H       4.250821221576698      1.477244595688114     19.107467775102144
C       1.996394275269246      1.156077834653403     18.120677914188178
O       3.676278136100936      2.178100754023370     18.755198577631496
