39
CH2-s.xyz
Rh      0.000000000000000      0.000000000000000     10.000000000000000
Rh      2.729432175380073      0.000000000000000     10.000000000000000
Rh      5.458864350760146      0.000000000000000     10.000000000000000
Rh      1.364716087690037      2.363757601785767     10.000000000000000
Rh      4.094148263070110      2.363757601785767     10.000000000000000
Rh      6.823580438450183      2.363757601785767     10.000000000000000
Rh      2.729432175380073      4.727515203571533     10.000000000000000
Rh      5.458864350760146      4.727515203571533     10.000000000000000
Rh      8.188296526140221      4.727515203571533     10.000000000000000
Rh      1.364716087690037      0.787919200595256     12.228572039071956
Rh      4.094148263070109      0.787919200595256     12.228572039071956
Rh      6.823580438450183      0.787919200595256     12.228572039071956
Rh      2.729432175380073      3.151676802381022     12.228572039071956
Rh      5.458864350760146      3.151676802381022     12.228572039071956
Rh      8.188296526140221      3.151676802381022     12.228572039071956
Rh      4.094148263070110      5.515434404166789     12.228572039071956
Rh      6.823580438450183      5.515434404166789     12.228572039071956
Rh      9.553012613830257      5.515434404166789     12.228572039071956
Rh      0.007709080688779      1.580192256965789     14.431997861617319
Rh      2.720920661863677      1.571138198293260     14.433275474819029
Rh      5.453600563639018      1.568332913391468     14.428099542953497
Rh      1.361846057155736      3.943472732283237     14.419074609148881
Rh      4.085002152363090      3.939023421973511     14.427958242118478
Rh      6.822382877176876      3.938977412267378     14.420245396552826
Rh      2.733826916131024      6.305869983240417     14.447393038799444
Rh      5.466217611225459      6.308087236079482     14.431965311548833
Rh      8.190284371741480      6.299072902745774     14.419136097006422
Rh     -0.051206273468188     -0.029698455332046     16.651916551153100
Rh      2.698846320224314     -0.011403262936205     16.735035216684530
Rh      5.424034022597459     -0.011958629769520     16.632015255341088
Rh      1.341121211439546      2.343396012452795     16.736343020707160
Rh      4.112682322231781      2.374512433027658     16.630271040561084
Rh      6.789594848645989      2.368101583549989     16.632425322954994
Rh      2.701722650329199      4.703215479768204     16.632066713621409
Rh      5.445559242340676      4.695742518084345     16.632671929277336
Rh      8.169524301050316      4.716458334593221     16.631460045721642
C       1.638414551037344      0.945981979923047     18.192894814740434
H       2.295253808887957      1.313972693480878     18.987277843120815
H       0.766257419217727      0.449617829730606     18.668189826809588
