43
CH3CHO-s.xyz
Rh      0.000000000000000      0.000000000000000     10.000000000000000
Rh      2.729432175380073      0.000000000000000     10.000000000000000
Rh      5.458864350760146      0.000000000000000     10.000000000000000
Rh      1.364716087690037      2.363757601785767     10.000000000000000
Rh      4.094148263070110      2.363757601785767     10.000000000000000
Rh      6.823580438450183      2.363757601785767     10.000000000000000
Rh      2.729432175380073      4.727515203571533     10.000000000000000
Rh      5.458864350760146      4.727515203571533     10.000000000000000
Rh      8.188296526140221      4.727515203571533     10.000000000000000
Rh      1.364716087690037      0.787919200595256     12.228572039071956
Rh      4.094148263070109      0.787919200595256     12.228572039071956
Rh      6.823580438450183      0.787919200595256     12.228572039071956
Rh      2.729432175380073      3.151676802381022     12.228572039071956
Rh      5.458864350760146      3.151676802381022     12.228572039071956
Rh      8.188296526140221      3.151676802381022     12.228572039071956
Rh      4.094148263070110      5.515434404166789     12.228572039071956
Rh      6.823580438450183      5.515434404166789     12.228572039071956
Rh      9.553012613830257      5.515434404166789     12.228572039071956
Rh      0.008952853656397      1.562640074976559     14.438506774938793
Rh      2.729402968655244      1.568901483758399     14.421193914474433
Rh      5.468461537751395      1.569466343385469     14.422580390595693
Rh      1.367679106363382      3.916431721759567     14.475419324188316
Rh      4.099215564995487      3.941328578818717     14.421662157398588
Rh      6.832161045580358      3.938471202972620     14.430670939247161
Rh      2.735546934167707      6.301344839810473     14.421697476479578
Rh      5.457140059523947      6.309146658642441     14.436231257499315
Rh      8.175751439722550      6.306830173760978     14.472889882572197
Rh      0.004553781139087     -0.023584936843759     16.768693141614776
Rh      2.780421934256403      0.024620247429551     16.694606022182903
Rh      5.504891516514026      0.003531716193064     16.634148160492071
Rh      1.418575046841564      2.374576926327540     16.699933856394505
Rh      4.153970810982858      2.385121859108880     16.616279179250629
Rh      6.835542960587186      2.375176894430037     16.630348072147996
Rh      2.761359542826005      4.749268198270698     16.631771504489475
Rh      5.484664960095022      4.712865101119644     16.622950426834148
Rh      8.208813235789195      4.726873319160084     16.643047713076854
H       1.701643238629462     -1.469489904258652     19.229260637917577
H       0.000553405951684     -1.390657969533217     19.727668831438095
H      -0.072399689477683      1.060792427962592     19.113830066734206
H       1.233607570593668     -0.481539756508010     20.617501460388045
O       1.850166128939325      1.072346912008648     18.421429008662990
C       0.705131456787564      0.386129359514348     18.738575191392140
C       0.919607261212622     -0.817348666548717     19.621801346754602
