44
CH3CHOH-s.xyz
Rh      0.000000000000000      0.000000000000000     10.000000000000000
Rh      2.729432175380073      0.000000000000000     10.000000000000000
Rh      5.458864350760146      0.000000000000000     10.000000000000000
Rh      1.364716087690037      2.363757601785767     10.000000000000000
Rh      4.094148263070110      2.363757601785767     10.000000000000000
Rh      6.823580438450183      2.363757601785767     10.000000000000000
Rh      2.729432175380073      4.727515203571533     10.000000000000000
Rh      5.458864350760146      4.727515203571533     10.000000000000000
Rh      8.188296526140221      4.727515203571533     10.000000000000000
Rh      1.364716087690037      0.787919200595256     12.228572039071956
Rh      4.094148263070109      0.787919200595256     12.228572039071956
Rh      6.823580438450183      0.787919200595256     12.228572039071956
Rh      2.729432175380073      3.151676802381022     12.228572039071956
Rh      5.458864350760146      3.151676802381022     12.228572039071956
Rh      8.188296526140221      3.151676802381022     12.228572039071956
Rh      4.094148263070110      5.515434404166789     12.228572039071956
Rh      6.823580438450183      5.515434404166789     12.228572039071956
Rh      9.553012613830257      5.515434404166789     12.228572039071956
Rh      0.005320027859852      1.577604032658518     14.421515363570581
Rh      2.746708407741662      1.584803575247423     14.462929325326831
Rh      5.455605228023033      1.586440337392015     14.433569929770554
Rh      1.363906728958421      3.938365724062552     14.426732683258889
Rh      4.104539783044567      3.949092396812548     14.434982183021230
Rh      6.811238864490607      3.949169010341744     14.441007151967964
Rh      2.733473654656298      6.308570609508635     14.414676159568108
Rh      5.464001467002605      6.293499980918830     14.438318454486911
Rh      8.185713397665861      6.303415444733437     14.424099074569797
Rh      0.005226251562070      0.002464463926870     16.621391392402142
Rh      2.729717437687903     -0.015845455108000     16.638686683418545
Rh      5.464642523870696     -0.002497963393875     16.624361730140603
Rh      1.360019382354105      2.365245852928190     16.634919670282422
Rh      4.104555731013535      2.372622002587734     16.691626532624838
Rh      6.853325341221995      2.353031023393243     16.614909962646191
Rh      2.703096458738711      4.746050243405351     16.607841373594876
Rh      5.442894337696548      4.716702464084702     16.822028039572821
Rh      8.190616067930211      4.734294972969826     16.637192722540032
H       3.611031079784959      5.651915404991178     19.362972707364310
H       5.236054196045973      6.246167528591294     19.679644756867347
H       6.205118375831474      3.991048510795212     19.180651569090006
H       3.505249696533965      3.270008071928834     19.139348084396229
H       4.523601845785475      5.027568757553393     20.752698770589351
O       4.431788285651113      3.035248250929965     18.963506427745195
C       5.199893850933345      4.264999261482646     18.857187076457500
C       4.604775256218832      5.359624715306357     19.710154411856397
