39
CHO-s.xyz
Rh      0.000000000000000      0.000000000000000     10.000000000000000
Rh      2.729432175380073      0.000000000000000     10.000000000000000
Rh      5.458864350760146      0.000000000000000     10.000000000000000
Rh      1.364716087690037      2.363757601785767     10.000000000000000
Rh      4.094148263070110      2.363757601785767     10.000000000000000
Rh      6.823580438450183      2.363757601785767     10.000000000000000
Rh      2.729432175380073      4.727515203571533     10.000000000000000
Rh      5.458864350760146      4.727515203571533     10.000000000000000
Rh      8.188296526140221      4.727515203571533     10.000000000000000
Rh      1.364716087690037      0.787919200595256     12.228572039071956
Rh      4.094148263070109      0.787919200595256     12.228572039071956
Rh      6.823580438450183      0.787919200595256     12.228572039071956
Rh      2.729432175380073      3.151676802381022     12.228572039071956
Rh      5.458864350760146      3.151676802381022     12.228572039071956
Rh      8.188296526140221      3.151676802381022     12.228572039071956
Rh      4.094148263070110      5.515434404166789     12.228572039071956
Rh      6.823580438450183      5.515434404166789     12.228572039071956
Rh      9.553012613830257      5.515434404166789     12.228572039071956
Rh      0.004532405469564      1.577173341910220     14.422370124093790
Rh      2.720422595017634      1.570639068158157     14.432533582725400
Rh      5.443589965090067      1.582172212692416     14.447553389455441
Rh      1.367011513431371      3.936351006652109     14.425553953402229
Rh      4.091960813148859      3.923207930440539     14.447547068952595
Rh      6.826548446893634      3.941365735079684     14.420232967455696
Rh      2.728265032101131      6.302626147750807     14.420827117426354
Rh      5.462272716360055      6.306589581842210     14.422359494750010
Rh      8.186600448535675      6.306955208399797     14.425665990819342
Rh     -0.017989866485270     -0.010403192068151     16.613021274598097
Rh      2.715616420873725      0.006413327593741     16.752447966044496
Rh      5.475100248652457     -0.013825243783719     16.623870511177941
Rh      1.363297584104550      2.348698553034992     16.752591059742354
Rh      4.148048456856806      2.394850896020901     16.700559274653955
Rh      6.849338186828714      2.375342721298626     16.631960993775746
Rh      2.725503425102598      4.748526969492971     16.623871875909042
Rh      5.481685863818330      4.744044661283031     16.631883824498434
Rh      8.193054465926672      4.730193191146679     16.634053914040859
H       1.747571562681822      1.009038572308464     19.118692805264047
C       2.395381407193150      1.382967637619392     18.312332717483603
O       3.460771181455056      1.997960438167513     18.673347644914365
