40
CHOH-s.xyz
Rh      0.000000000000000      0.000000000000000     10.000000000000000
Rh      2.729432175380073      0.000000000000000     10.000000000000000
Rh      5.458864350760146      0.000000000000000     10.000000000000000
Rh      1.364716087690037      2.363757601785767     10.000000000000000
Rh      4.094148263070110      2.363757601785767     10.000000000000000
Rh      6.823580438450183      2.363757601785767     10.000000000000000
Rh      2.729432175380073      4.727515203571533     10.000000000000000
Rh      5.458864350760146      4.727515203571533     10.000000000000000
Rh      8.188296526140221      4.727515203571533     10.000000000000000
Rh      1.364716087690037      0.787919200595256     12.228572039071956
Rh      4.094148263070109      0.787919200595256     12.228572039071956
Rh      6.823580438450183      0.787919200595256     12.228572039071956
Rh      2.729432175380073      3.151676802381022     12.228572039071956
Rh      5.458864350760146      3.151676802381022     12.228572039071956
Rh      8.188296526140221      3.151676802381022     12.228572039071956
Rh      4.094148263070110      5.515434404166789     12.228572039071956
Rh      6.823580438450183      5.515434404166789     12.228572039071956
Rh      9.553012613830257      5.515434404166789     12.228572039071956
Rh      0.016198107606304      1.582134296543417     14.432010122434097
Rh      2.721837285578212      1.570113001807851     14.449444090108562
Rh      5.461875879531553      1.569664831558959     14.422239963592252
Rh      1.364309700948193      3.936165950822232     14.433878020198849
Rh      4.090910282252636      3.944661549986310     14.420391088802200
Rh      6.831460147517640      3.943535823048440     14.425242323233217
Rh      2.725540256378171      6.300667850878433     14.426665915777672
Rh      5.474148902713294      6.313355842681941     14.432792102265903
Rh      8.185688816229623      6.303454969290130     14.434211413492035
Rh     -0.038081248772603     -0.024971757812430     16.610000751046776
Rh      2.715015721954174      0.021495602290653     16.803428757095467
Rh      5.451456696628697      0.000077795654570     16.632803264988361
Rh      1.385031680025749      2.331052864162498     16.812317267763657
Rh      4.149344555855114      2.394510679482972     16.603794654447210
Rh      6.830317463416503      2.369662397465946     16.637025319289691
Rh      2.727791548758923      4.716601160128152     16.632556783555692
Rh      5.468973219275497      4.726738443185014     16.636277078413944
Rh      8.186156135451785      4.722446550932298     16.642945509737057
H       1.133641618725062      0.649462213952408     18.910952636584149
H       3.596220392439845      1.988212356154368     18.979124144975980
C       1.975873109645565      1.119180319850884     18.392347047402868
O       2.801079394902943      1.574333531982919     19.371790694386469
