41
H-CH3-s.xyz
Rh      0.000000000000000      0.000000000000000     10.000000000000000
Rh      2.729432175380073      0.000000000000000     10.000000000000000
Rh      5.458864350760146      0.000000000000000     10.000000000000000
Rh      1.364716087690037      2.363757601785767     10.000000000000000
Rh      4.094148263070110      2.363757601785767     10.000000000000000
Rh      6.823580438450183      2.363757601785767     10.000000000000000
Rh      2.729432175380073      4.727515203571533     10.000000000000000
Rh      5.458864350760146      4.727515203571533     10.000000000000000
Rh      8.188296526140221      4.727515203571533     10.000000000000000
Rh      1.364716087690037      0.787919200595256     12.228572039071956
Rh      4.094148263070109      0.787919200595256     12.228572039071956
Rh      6.823580438450183      0.787919200595256     12.228572039071956
Rh      2.729432175380073      3.151676802381022     12.228572039071956
Rh      5.458864350760146      3.151676802381022     12.228572039071956
Rh      8.188296526140221      3.151676802381022     12.228572039071956
Rh      4.094148263070110      5.515434404166789     12.228572039071956
Rh      6.823580438450183      5.515434404166789     12.228572039071956
Rh      9.553012613830257      5.515434404166789     12.228572039071956
Rh      0.022864944388974      1.595117396092662     14.463023125753539
Rh      2.721135731422617      1.588674408088527     14.440916552806957
Rh      5.460391967784342      1.584666937722728     14.429935955494152
Rh      1.366022303527946      3.938641186957903     14.439586311491189
Rh      4.089731267836334      3.943909668143096     14.425427425689781
Rh      6.827752141188463      3.943441422543975     14.422006748011302
Rh      2.732051711570922      6.311222980815672     14.429178635905405
Rh      5.458509438012240      6.314706948969842     14.421828487689837
Rh      8.189866799465332      6.311070567038987     14.425008854088276
Rh     -0.005297731024034     -0.009897547656954     16.628819897961097
Rh      2.734087364484325     -0.005777674787821     16.625118041160292
Rh      5.458875116872576      0.011095160539437     16.632227771588546
Rh      1.357748920264108      2.372643265493074     16.825814238264591
Rh      4.113511022376978      2.373512640204922     16.640444820570618
Rh      6.803897327514297      2.378429392836356     16.626753247961236
Rh      2.740057397484327      4.753916025895270     16.646091499988586
Rh      5.465110305232017      4.741524135987265     16.634968076990010
Rh      8.174681340947977      4.751925574201269     16.626207517267350
C       1.343911556764729      2.376036196116338     19.044797457363206
H       1.882919159073606      3.084506358759921     19.674389074213170
H       1.638418310976972      1.361503320587252     19.299052944705139
H       0.275903587160493      2.539654588901442     19.175077979172013
H       2.309056932864608      3.035667695714234     17.988193772048895
