39
H-CO-s.xyz
Rh      0.000000000000000      0.000000000000000     10.000000000000000
Rh      2.729432175380073      0.000000000000000     10.000000000000000
Rh      5.458864350760146      0.000000000000000     10.000000000000000
Rh      1.364716087690037      2.363757601785767     10.000000000000000
Rh      4.094148263070110      2.363757601785767     10.000000000000000
Rh      6.823580438450183      2.363757601785767     10.000000000000000
Rh      2.729432175380073      4.727515203571533     10.000000000000000
Rh      5.458864350760146      4.727515203571533     10.000000000000000
Rh      8.188296526140221      4.727515203571533     10.000000000000000
Rh      1.364716087690037      0.787919200595256     12.228572039071956
Rh      4.094148263070109      0.787919200595256     12.228572039071956
Rh      6.823580438450183      0.787919200595256     12.228572039071956
Rh      2.729432175380073      3.151676802381022     12.228572039071956
Rh      5.458864350760146      3.151676802381022     12.228572039071956
Rh      8.188296526140221      3.151676802381022     12.228572039071956
Rh      4.094148263070110      5.515434404166789     12.228572039071956
Rh      6.823580438450183      5.515434404166789     12.228572039071956
Rh      9.553012613830257      5.515434404166789     12.228572039071956
Rh      0.003656399019505      1.577029337248019     14.424999306706374
Rh      2.728021379577140      1.566128154741508     14.419502684235841
Rh      5.452066079124512      1.582810788618938     14.433971764493645
Rh      1.363273190334020      3.921893633856482     14.451236562478032
Rh      4.095460797545886      3.929548938141096     14.445401144230518
Rh      6.824041188883373      3.944305303766356     14.421525110956956
Rh      2.725113988151147      6.302246325176099     14.419044793289297
Rh      5.460381495116329      6.307971286162576     14.424232345268484
Rh      8.180938701861507      6.307516385664663     14.428061569729319
Rh     -0.023228779217467     -0.010036665099273     16.615853900553368
Rh      2.716526251549375      0.006995305633847     16.764000506440293
Rh      5.473165929274483     -0.004250714486885     16.619048491295104
Rh      1.344432285026299      2.398521245582554     16.718530088212866
Rh      4.139025156071064      2.404279535685245     16.673877669390457
Rh      6.831401735303192      2.371616104522694     16.623314898705807
Rh      2.728615114609755      4.763005567278635     16.627615297002766
Rh      5.470205984887546      4.749689729060365     16.637901884981375
Rh      8.177636108807034      4.748251346233612     16.638133525032430
H       1.544167421734073      1.676373957053120     18.551885600508296
C       2.634640393113328      1.413407160823128     18.213014445605083
O       3.569493751321276      1.813268869744518     18.918927481892286
