40
HCO-H-s.xyz
Rh      0.000000000000000      0.000000000000000     10.000000000000000
Rh      2.729432175380073      0.000000000000000     10.000000000000000
Rh      5.458864350760146      0.000000000000000     10.000000000000000
Rh      1.364716087690037      2.363757601785767     10.000000000000000
Rh      4.094148263070110      2.363757601785767     10.000000000000000
Rh      6.823580438450183      2.363757601785767     10.000000000000000
Rh      2.729432175380073      4.727515203571533     10.000000000000000
Rh      5.458864350760146      4.727515203571533     10.000000000000000
Rh      8.188296526140221      4.727515203571533     10.000000000000000
Rh      1.364716087690037      0.787919200595256     12.228572039071956
Rh      4.094148263070109      0.787919200595256     12.228572039071956
Rh      6.823580438450183      0.787919200595256     12.228572039071956
Rh      2.729432175380073      3.151676802381022     12.228572039071956
Rh      5.458864350760146      3.151676802381022     12.228572039071956
Rh      8.188296526140221      3.151676802381022     12.228572039071956
Rh      4.094148263070110      5.515434404166789     12.228572039071956
Rh      6.823580438450183      5.515434404166789     12.228572039071956
Rh      9.553012613830257      5.515434404166789     12.228572039071956
Rh     -0.002904147846733      1.570908441937982     14.412653266904313
Rh      2.716135764255534      1.572481971548758     14.425184577847675
Rh      5.444180924744924      1.580173308748958     14.443785660322629
Rh      1.374422924996008      3.944639078491445     14.444889497251149
Rh      4.086658792895273      3.947177688869111     14.443399970286327
Rh      6.828016900363293      3.943114217598697     14.428400406828290
Rh      2.726594975792336      6.311647215599247     14.411118750250271
Rh      5.468707024837296      6.311779101494864     14.431472444427806
Rh      8.184132214873188      6.307211275915566     14.434134761555276
Rh     -0.026355408063073     -0.029477615617914     16.613616996611935
Rh      2.729003928009707      0.064212406922291     16.805255086697780
Rh      5.475004260440564     -0.030865961742762     16.629006963124972
Rh      1.294455136239170      2.348067938121913     16.717157213295412
Rh      4.175655119629408      2.367190219562801     16.633734804281051
Rh      6.835327720120159      2.363071748822160     16.631716815589964
Rh      2.738110398252851      4.686882786340774     16.717321882188550
Rh      5.485217104533046      4.761457727849829     16.638406064242474
Rh      8.177735946162114      4.746983563741266     16.646704986050320
H       1.722805300849034      0.998825583696905     19.099130863430862
H       3.125318045454982      3.419130250670803     18.042393465617803
C       2.279530784053701      1.479331422123351     18.285952639291612
O       3.240372361102715      2.298915532274857     18.737729700725396
