38

Rh      0.000000000000000      0.000000000000000     10.000000000000000
Rh      2.729432175380073      0.000000000000000     10.000000000000000
Rh      5.458864350760146      0.000000000000000     10.000000000000000
Rh      1.364716087690037      2.363757601785767     10.000000000000000
Rh      4.094148263070110      2.363757601785767     10.000000000000000
Rh      6.823580438450183      2.363757601785767     10.000000000000000
Rh      2.729432175380073      4.727515203571533     10.000000000000000
Rh      5.458864350760146      4.727515203571533     10.000000000000000
Rh      8.188296526140221      4.727515203571533     10.000000000000000
Rh      1.364716087690037      0.787919200595256     12.228572039071956
Rh      4.094148263070109      0.787919200595256     12.228572039071956
Rh      6.823580438450183      0.787919200595256     12.228572039071956
Rh      2.729432175380073      3.151676802381022     12.228572039071956
Rh      5.458864350760146      3.151676802381022     12.228572039071956
Rh      8.188296526140221      3.151676802381022     12.228572039071956
Rh      4.094148263070110      5.515434404166789     12.228572039071956
Rh      6.823580438450183      5.515434404166789     12.228572039071956
Rh      9.553012613830257      5.515434404166789     12.228572039071956
Rh     -0.006817361456533      1.565955008792935     14.433419398460133
Rh      2.725512627708566      1.573575110629241     14.427528213658206
Rh      5.460078825954255      1.569157983753965     14.443095605034500
Rh      1.362922452361727      3.937144021584490     14.425218280214343
Rh      4.088980404841382      3.944048538214747     14.443093410869109
Rh      6.838894425894202      3.948486443346563     14.457920713391765
Rh      2.727937512283977      6.302456370328506     14.414841059514364
Rh      5.446897037802614      6.302370791777605     14.433403147709505
Rh      8.185221537519698      6.303008329822093     14.425203838188267
Rh     -0.031823041416313     -0.018346886845954     16.729226345291075
Rh      2.670107750403325      0.006324014032957     16.638480220665922
Rh      5.415811672573891      0.053422081028287     16.661202933777361
Rh      1.340530436150770      2.309259396231138     16.638489375123953
Rh      4.085005392693873      2.358537548894778     16.626535192628790
Rh      6.824120831374809      2.382743152201536     16.632852616423740
Rh      2.754215913423911      4.663540661107932     16.661181940442336
Rh      5.475516813850889      4.718549835809246     16.632829477994878
Rh      8.190130567431535      4.728580707507187     16.709302034115314
O       5.643563709730288     -1.469537321439443     18.087888454622320
H       6.817844356544338     -0.790456124979574     17.881545098001528
